Circuit: * C:\Users\dayus\Desktop\Full Wave Precision Rectifier\Draft2.asc

Direct Newton iteration for .op point succeeded.

Date: Mon Sep 22 19:32:25 2025
Total elapsed time: 0.122 seconds.

tnom = 27
temp = 27
method = modified trap
totiter = 7517
traniter = 7491
tranpoints = 3045
accept = 2458
rejected = 587
matrix size = 24
fillins = 32
solver = Normal
Thread vector: 3.9/2.5[2] 1.2/0.9[2] 0.7/0.6[2] 0.1/0.5[1]  2592/500
Matrix Compiler1:     173 opcodes  0.5/[0.2]/0.3
Matrix Compiler2: off  [0.2]/0.4/0.3

